<?xml version="1.0" ?>
<!-- Generated by MOSAIC scenario-convert 23.1 -->
<routes>
	<vType id="default" length="7.5" maxSpeed="50" minGap="2.0" carFollowModel="Krauss" accel="0.80" decel="4.5" sigma="0.5" tau="1"/>
	<route id="r_0" edges="37843944_443800955_443800958 37843944_443800958_768203708" />
	<route id="r_1" edges="37842092_441803339_443800958 37842092_443800958_441803451 37842092_441803451_441803022" />
</routes>