<nodes>
	<node id="441803022" x="530281.58" y="4539338.80" z="0.00" type="priority" />
	<node id="441803339" x="529931.34" y="4539339.07" z="0.00" type="priority" />
	<node id="441803439" x="530154.00" y="4539554.42" z="0.00" type="priority" />
	<node id="441803451" x="530151.86" y="4539338.99" z="0.00" type="priority" />
	<node id="441803462" x="530147.39" y="4538884.49" z="0.00" type="priority" />
	<node id="443800955" x="530076.88" y="4539554.67" z="0.00" type="priority" />
	<node id="443800958" x="530076.09" y="4539338.46" z="0.00" type="priority" />
	<node id="768203708" x="530133.29" y="4538805.33" z="0.00" type="priority" />
</nodes>
