<?xml version="1.0" encoding="UTF-8"?>

<!-- generated on 2024-03-25 20:17:51 by Eclipse SUMO sumo Version 1.19.0
-->

<configuration xmlns:xsi="http://www.w3.org/2001/XMLSchema-instance" xsi:noNamespaceSchemaLocation="http://sumo.dlr.de/xsd/sumoConfiguration.xsd">

    <input>
        <net-file value="highway.net.xml"/>
        <additional-files value="prog_semafores.add.xml"/>
    </input>

</configuration>
