<additional>
  <tlLogic id="443800958" programID="1" offset="0" type="static">
    <phase duration="31" state="rrryyy"/>
  </tlLogic>
</additional>