<additional>
  <tlLogic id="443800958" programID="1" offset="0" type="static">
    <phase duration="31" state="rrrrrr"/>
  </tlLogic>
  <tlLogic id="443800958" type="static" programID="2" offset="0">
        <phase duration="42" state="rrrGGG"/>
        <phase duration="3"  state="rrryyy"/>
  </tlLogic>
</additional>