<edges>
	<edge id="37842092_441803339_443800958" from="441803339" to="443800958" numLanes="2" shape="529931.34,4539339.07,0.00 529962.43,4539338.98,0.00 529967.51,4539338.95,0.00 529991.99,4539339.13,0.00 530018.14,4539339.19,0.00 530076.09,4539338.46,0.00" speed="8.33" />
	<edge id="1113136056_441803451_441803439" from="441803451" to="441803439" numLanes="2" shape="530151.86,4539338.99,0.00 530152.22,4539411.46,0.00 530153.12,4539479.94,0.00 530153.21,4539488.00,0.00 530153.91,4539546.96,0.00 530154.00,4539554.42,0.00" speed="8.33" />
	<edge id="37842092_441803451_441803022" from="441803451" to="441803022" numLanes="2" shape="530151.86,4539338.99,0.00 530204.32,4539338.89,0.00 530281.58,4539338.80,0.00" speed="8.33" />
	<edge id="1113136056_441803462_441803451" from="441803462" to="441803451" numLanes="2" shape="530147.39,4538884.49,0.00 530147.00,4538952.78,0.00 530148.92,4539066.15,0.00 530149.42,4539155.72,0.00 530149.47,4539163.40,0.00 530150.56,4539250.23,0.00 530150.67,4539259.50,0.00 530150.80,4539267.93,0.00 530151.86,4539338.99,0.00" speed="8.33" />
	<edge id="37842092_443800958_441803451" from="443800958" to="441803451" numLanes="2" shape="530076.09,4539338.46,0.00 530151.86,4539338.99,0.00" speed="8.33" />
	<edge id="37843944_443800955_443800958" from="443800955" to="443800958" numLanes="2" shape="530076.88,4539554.67,0.00 530076.86,4539546.90,0.00 530076.66,4539486.98,0.00 530076.63,4539479.23,0.00 530076.47,4539411.27,0.00 530076.09,4539338.46,0.00" speed="8.33" />
	<edge id="37843944_443800958_768203708" from="443800958" to="768203708" numLanes="2" shape="530076.09,4539338.46,0.00 530075.41,4539267.33,0.00 530075.33,4539259.57,0.00 530075.33,4539253.69,0.00 530075.14,4539162.37,0.00 530074.27,4539061.88,0.00 530073.30,4538944.37,0.00 530073.64,4538882.75,0.00 530077.85,4538875.24,0.00 530088.13,4538865.61,0.00 530129.80,4538819.79,0.00 530133.29,4538805.33,0.00" speed="8.33" />
</edges>
