<connections>
	<connection from="37842092_441803339_443800958" to="37842092_443800958_441803451" />
	<connection from="37842092_441803339_443800958" to="37843944_443800958_768203708" />
	<connection from="1113136056_441803462_441803451" to="1113136056_441803451_441803439" />
	<connection from="1113136056_441803462_441803451" to="37842092_441803451_441803022" />
	<connection from="37842092_443800958_441803451" to="1113136056_441803451_441803439" />
	<connection from="37842092_443800958_441803451" to="37842092_441803451_441803022" />
	<connection from="37843944_443800955_443800958" to="37842092_443800958_441803451" />
	<connection from="37843944_443800955_443800958" to="37843944_443800958_768203708" />
</connections>
